
########## Name:		ZINC00000710
##########    Grid Score:          -40.978924
##########      Grid_vdw:          -40.320881
##########       Grid_es:           -0.658043
##########    Int_energy:            0.000000

@<TRIPOS>MOLECULE
ZINC00000710
 23 25 1 0 0
SMALL
USER_CHARGES


@<TRIPOS>ATOM
      1 C1          1.1599  -37.2029   19.5954 C.ar    1  ****       -0.0750
      2 C2          2.1342  -37.1033   20.5889 C.ar    1  ****       -0.1480
      3 C3          1.8119  -36.5303   21.8186 C.ar    1  ****        0.1420
      4 C4          0.5022  -36.0834   22.0632 C.ar    1  ****       -0.2000
      5 C5         -0.4764  -36.1869   21.0742 C.ar    1  ****       -0.0370
      6 C6         -0.1366  -36.7425   19.8391 C.ar    1  ****       -0.0200
      7 CL1        -1.3328  -36.8757   18.6066 Cl      1  ****       -0.0790
      8 C7          0.1606  -35.5638   23.4093 C.2     1  ****        0.6730
      9 O1         -0.9970  -35.3738   23.7522 O.2     1  ****       -0.5400
     10 N1          1.2694  -35.3940   24.1664 N.am    1  ****       -0.2540
     11 C8          2.6151  -35.4022   23.6853 C.3     1  ****        0.2280
     12 O2          2.8113  -36.4774   22.7657 O.3     1  ****       -0.3320
     13 C9          3.4226  -35.6111   24.9405 C.3     1  ****       -0.1130
     14 C10         2.5770  -34.8434   25.9391 C.3     1  ****        0.1020
     15 O3          1.2082  -34.9945   25.5107 O.3     1  ****       -0.2360
     16 H1          1.4215  -37.6432   18.6361 H       1  ****        0.1550
     17 H2          3.1395  -37.4674   20.3977 H       1  ****        0.1600
     18 H3         -1.4923  -35.8479   21.2611 H       1  ****        0.1740
     19 H4          2.9011  -34.4524   23.2039 H       1  ****        0.0970
     20 H5          3.4563  -36.6747   25.2058 H       1  ****        0.0880
     21 H6          4.4522  -35.2523   24.8706 H       1  ****        0.0770
     22 H7          2.6858  -35.2282   26.9563 H       1  ****        0.0670
     23 H8          2.8162  -33.7744   25.9326 H       1  ****        0.0700
@<TRIPOS>BOND
     1     2     1   ar
     2     3     2   ar
     3     4     3   ar
     4     5     4   ar
     5     6     1   ar
     6     6     5   ar
     7     7     6    1
     8     8     4    1
     9     9     8    2
    10    10     8    1
    11    11    10    1
    12    12     3    1
    13    12    11    1
    14    13    11    1
    15    14    13    1
    16    15    10    1
    17    15    14    1
    18    16     1    1
    19    17     2    1
    20    18     5    1
    21    19    11    1
    22    20    13    1
    23    21    13    1
    24    22    14    1
    25    23    14    1
@<TRIPOS>SUBSTRUCTURE
     1 ****        1 TEMP              0 ****  ****    0 ROOT


########## Name:		ZINC00000896
##########    Grid Score:          -30.301762
##########      Grid_vdw:          -28.226072
##########       Grid_es:           -2.075689
##########    Int_energy:            0.000000

@<TRIPOS>MOLECULE
ZINC00000896
 14 15 1 0 0
SMALL
USER_CHARGES


@<TRIPOS>ATOM
      1 C1         -0.0241  -36.7605   19.3126 C.2     1  ****        0.3820
      2 C2          0.1868  -36.6873   20.6954 C.2     1  ****       -0.3710
      3 C3         -0.6986  -35.7354   21.1431 C.2     1  ****        0.1640
      4 N1         -1.3714  -35.3040   20.0405 N.pl3   1  ****        0.0030
      5 N2         -0.9786  -35.9142   18.9026 N.2     1  ****       -0.5100
      6 N3         -0.8947  -35.2906   22.4073 N.2     1  ****       -0.6130
      7 C4         -0.1076  -35.8862   23.2553 C.2     1  ****        0.5090
      8 N4          0.8349  -36.8665   22.9406 N.am    1  ****       -0.4960
      9 C5          1.0528  -37.3392   21.6434 C.2     1  ****        0.7470
     10 O1          1.8722  -38.1972   21.3407 O.2     1  ****       -0.6130
     11 H1         -2.1008  -34.6041   19.9887 H       1  ****        0.3380
     12 H2          1.3969  -37.2632   23.6862 H       1  ****        0.3400
     13 H3          0.4685  -37.3865   18.5817 H       1  ****        0.0610
     14 H4         -0.1321  -35.6448   24.3296 H       1  ****        0.0580
@<TRIPOS>BOND
     1     2     1    1
     2     3     2   ar
     3     4     3    1
     4     5     1    2
     5     5     4    1
     6     6     3    1
     7     7     6    2
     8     8     7    1
     9     9     2    1
    10     9     8    1
    11    10     9    2
    12    11     4    1
    13    12     8    1
    14    13     1    1
    15    14     7    1
@<TRIPOS>SUBSTRUCTURE
     1 ****        1 TEMP              0 ****  ****    0 ROOT


########## Name:		ZINC00001052
##########    Grid Score:          -35.860786
##########      Grid_vdw:          -35.539551
##########       Grid_es:           -0.321235
##########    Int_energy:            0.000000

@<TRIPOS>MOLECULE
ZINC00001052
 15 16 1 0 0
SMALL
USER_CHARGES


@<TRIPOS>ATOM
      1 C1          4.2170  -36.8736   22.2028 C.ar    1  ****       -0.1310
      2 C2          3.2488  -37.8212   21.9621 C.ar    1  ****        0.0220
      3 C3          2.0622  -37.8746   22.6591 C.ar    1  ****        0.0410
      4 C4          1.7713  -36.9678   23.6547 C.ar    1  ****       -0.0630
      5 C5          2.7321  -35.9840   23.9319 C.ar    1  ****       -0.0370
      6 C6          3.9492  -35.9366   23.2101 C.ar    1  ****        0.0500
      7 CL1         5.1594  -34.7401   23.5214 Cl      1  ****       -0.0550
      8 BR1         2.3213  -34.7354   25.3068 Br      1  ****       -0.0460
      9 O1          1.2470  -38.9145   22.2399 O.3     1  ****       -0.2850
     10 C7          2.0122  -39.5130   21.2246 C.2     1  ****        0.8200
     11 O2          1.6343  -40.4882   20.5884 O.2     1  ****       -0.5620
     12 N1          3.2170  -38.8504   21.0610 N.am    1  ****       -0.4680
     13 H1          3.9426  -39.0836   20.3962 H       1  ****        0.3690
     14 H2          5.1422  -36.8576   21.6366 H       1  ****        0.1660
     15 H3          0.8324  -37.0228   24.1940 H       1  ****        0.1780
@<TRIPOS>BOND
     1     2     1   ar
     2     3     2   ar
     3     4     3   ar
     4     5     4   ar
     5     6     1   ar
     6     6     5   ar
     7     7     6    1
     8     8     5    1
     9     9     3    1
    10    10     9    1
    11    11    10    2
    12    12     2    1
    13    12    10    1
    14    13    12    1
    15    14     1    1
    16    15     4    1
@<TRIPOS>SUBSTRUCTURE
     1 ****        1 TEMP              0 ****  ****    0 ROOT


########## Name:		ZINC00001098
##########    Grid Score:          -33.336765
##########      Grid_vdw:          -31.475166
##########       Grid_es:           -1.861599
##########    Int_energy:            0.000000

@<TRIPOS>MOLECULE
ZINC00001098
 17 18 1 0 0
SMALL
USER_CHARGES


@<TRIPOS>ATOM
      1 C1         -0.5428  -35.6175   23.0479 C.ar    1  ****       -0.1630
      2 C2          0.5297  -36.3805   23.5161 C.ar    1  ****       -0.0690
      3 C3          1.3193  -37.1010   22.6212 C.ar    1  ****       -0.1500
      4 C4          1.0274  -37.0497   21.2591 C.ar    1  ****        0.1520
      5 C5         -0.0369  -36.2940   20.7860 C.ar    1  ****       -0.2140
      6 C6         -0.8298  -35.5718   21.6814 C.ar    1  ****       -0.0370
      7 C7         -0.3087  -36.2685   19.3432 C.2     1  ****        0.7320
      8 O1         -1.2364  -35.6166   18.8797 O.2     1  ****       -0.5880
      9 N1          0.5532  -37.0281   18.5742 N.am    1  ****       -0.5980
     10 C8          1.6214  -37.7910   19.0208 C.2     1  ****        0.8330
     11 O2          2.3400  -38.4384   18.2624 O.2     1  ****       -0.5760
     12 O3          1.8517  -37.7919   20.4005 O.3     1  ****       -0.3040
     13 H1          0.3867  -37.0285   17.5735 H       1  ****        0.3590
     14 H2         -1.1563  -35.0578   23.7490 H       1  ****        0.1480
     15 H3          0.7481  -36.4125   24.5801 H       1  ****        0.1460
     16 H4          2.1521  -37.6930   22.9873 H       1  ****        0.1650
     17 H5         -1.6672  -34.9726   21.3348 H       1  ****        0.1650
@<TRIPOS>BOND
     1     2     1   ar
     2     3     2   ar
     3     4     3   ar
     4     5     4   ar
     5     6     1   ar
     6     6     5   ar
     7     7     5    1
     8     8     7    2
     9     9     7    1
    10    10     9    1
    11    11    10    2
    12    12     4    1
    13    12    10    1
    14    13     9    1
    15    14     1    1
    16    15     2    1
    17    16     3    1
    18    17     6    1
@<TRIPOS>SUBSTRUCTURE
     1 ****        1 TEMP              0 ****  ****    0 ROOT


########## Name:		ZINC00001139
##########    Grid Score:          -31.352875
##########      Grid_vdw:          -31.476660
##########       Grid_es:            0.123786
##########    Int_energy:            0.000000

@<TRIPOS>MOLECULE
ZINC00001139
 15 16 1 0 0
SMALL
USER_CHARGES


@<TRIPOS>ATOM
      1 C1          2.1963  -34.8385   25.3608 C.ar    1  ****       -0.1290
      2 C2          3.5770  -34.7240   25.1687 C.ar    1  ****       -0.0850
      3 C3          4.1080  -35.3016   24.0355 C.ar    1  ****        0.0430
      4 C4          3.3116  -35.9667   23.1273 C.ar    1  ****        0.0090
      5 C5          1.9510  -36.1020   23.2800 C.ar    1  ****       -0.1270
      6 C6          1.3948  -35.5221   24.4229 C.ar    1  ****        0.0280
      7 CL1        -0.3025  -35.6434   24.6934 Cl      1  ****       -0.0810
      8 N1          4.1448  -36.4117   22.1363 N.am    1  ****       -0.4700
      9 C7          5.4304  -36.0113   22.4566 C.2     1  ****        0.8190
     10 O1          6.4390  -36.2319   21.7988 O.2     1  ****       -0.5700
     11 O2          5.4445  -35.2973   23.6672 O.3     1  ****       -0.2880
     12 H1          3.8689  -36.9385   21.3182 H       1  ****        0.3670
     13 H2          1.7469  -34.3928   26.2458 H       1  ****        0.1570
     14 H3          4.2006  -34.1998   25.8844 H       1  ****        0.1650
     15 H4          1.3477  -36.6303   22.5512 H       1  ****        0.1610
@<TRIPOS>BOND
     1     2     1   ar
     2     3     2   ar
     3     4     3   ar
     4     5     4   ar
     5     6     1   ar
     6     6     5   ar
     7     7     6    1
     8     8     4    1
     9     9     8    1
    10    10     9    2
    11    11     3    1
    12    11     9    1
    13    12     8    1
    14    13     1    1
    15    14     2    1
    16    15     5    1
@<TRIPOS>SUBSTRUCTURE
     1 ****        1 TEMP              0 ****  ****    0 ROOT


########## Name:		ZINC00001555
##########    Grid Score:          -25.858435
##########      Grid_vdw:          -25.082802
##########       Grid_es:           -0.775633
##########    Int_energy:            0.000000

@<TRIPOS>MOLECULE
ZINC00001555
 15 16 1 0 0
SMALL
USER_CHARGES


@<TRIPOS>ATOM
      1 C1          2.8276  -37.2273   23.2823 C.2     1  ****       -0.2790
      2 C2          3.7280  -36.8868   22.2279 C.2     1  ****        0.2980
      3 N1          4.4946  -35.8148   22.5039 N.2     1  ****       -0.4850
      4 N2          4.0673  -35.4980   23.7215 N.pl3   1  ****        0.0470
      5 C3          3.0957  -36.2847   24.2292 C.2     1  ****        0.0270
      6 N3          2.7574  -35.8619   25.4513 N.pl3   1  ****       -0.6390
      7 C4          3.5587  -34.6878   25.8192 C.3     1  ****        0.1310
      8 C5          4.4831  -34.4290   24.6034 C.3     1  ****        0.0350
      9 H1          2.0595  -36.2578   26.0699 H       1  ****        0.3830
     10 H2          2.1097  -38.0324   23.3195 H       1  ****        0.1700
     11 H3          3.8505  -37.3807   21.2740 H       1  ****        0.0410
     12 H4          2.9122  -33.8261   26.0100 H       1  ****        0.0770
     13 H5          4.1463  -34.8912   26.7211 H       1  ****        0.0510
     14 H6          5.5414  -34.5554   24.8405 H       1  ****        0.0700
     15 H7          4.2852  -33.4704   24.1172 H       1  ****        0.0710
@<TRIPOS>BOND
     1     2     1    1
     2     3     2    2
     3     4     3    1
     4     5     1    2
     5     5     4    1
     6     6     5    1
     7     7     6    1
     8     8     4    1
     9     8     7    1
    10     9     6    1
    11    10     1    1
    12    11     2    1
    13    12     7    1
    14    13     7    1
    15    14     8    1
    16    15     8    1
@<TRIPOS>SUBSTRUCTURE
     1 ****        1 TEMP              0 ****  ****    0 ROOT


########## Name:		ZINC00001621
##########    Grid Score:          -38.519695
##########      Grid_vdw:          -38.668236
##########       Grid_es:            0.148541
##########    Int_energy:            0.000000

@<TRIPOS>MOLECULE
ZINC00001621
 18 18 1 0 0
SMALL
USER_CHARGES


@<TRIPOS>ATOM
      1 C1          1.6496  -36.5769   23.7392 C.3     1  ****        0.0260
      2 C2          2.5135  -35.3530   24.0868 C.3     1  ****        0.0260
      3 C3          4.0061  -35.6023   23.8088 C.3     1  ****        0.0260
      4 C4          4.2515  -36.0929   22.3718 C.3     1  ****        0.0260
      5 C5          3.3873  -37.3164   22.0233 C.3     1  ****        0.0260
      6 C6          1.8947  -37.0671   22.3013 C.3     1  ****        0.0260
      7 CL1         0.9628  -38.5875   22.0133 Cl      1  ****       -0.1310
      8 CL2         3.6154  -37.7420   20.2832 Cl      1  ****       -0.1310
      9 CL3         5.9976  -36.5053   22.1624 Cl      1  ****       -0.1310
     10 CL4         4.9374  -34.0812   24.0972 Cl      1  ****       -0.1310
     11 CL5         2.2856  -34.9261   25.8273 Cl      1  ****       -0.1310
     12 CL6        -0.0968  -36.1642   23.9477 Cl      1  ****       -0.1310
     13 H1          1.8587  -37.3896   24.4462 H       1  ****        0.1050
     14 H2          2.1713  -34.4839   23.5108 H       1  ****        0.1050
     15 H3          4.3955  -36.3404   24.5219 H       1  ****        0.1050
     16 H4          4.0416  -35.2791   21.6642 H       1  ****        0.1050
     17 H5          3.7289  -38.1848   22.5997 H       1  ****        0.1050
     18 H6          1.5050  -36.3287   21.5895 H       1  ****        0.1050
@<TRIPOS>BOND
     1     2     1    1
     2     3     2    1
     3     4     3    1
     4     5     4    1
     5     6     1    1
     6     6     5    1
     7     7     6    1
     8     8     5    1
     9     9     4    1
    10    10     3    1
    11    11     2    1
    12    12     1    1
    13    13     1    1
    14    14     2    1
    15    15     3    1
    16    16     4    1
    17    17     5    1
    18    18     6    1
@<TRIPOS>SUBSTRUCTURE
     1 ****        1 TEMP              0 ****  ****    0 ROOT


########## Name:		ZINC00001738
##########    Grid Score:          -47.455814
##########      Grid_vdw:          -46.988087
##########       Grid_es:           -0.467728
##########    Int_energy:            0.000000

@<TRIPOS>MOLECULE
ZINC00001738
 36 40 1 0 0
SMALL
USER_CHARGES


@<TRIPOS>ATOM
      1 C1          5.8568  -39.0245   16.4941 C.ar    1  ****       -0.1180
      2 C2          4.6617  -39.3647   15.8677 C.ar    1  ****       -0.1260
      3 C3          3.4567  -39.2600   16.5621 C.ar    1  ****       -0.1190
      4 C4          3.4323  -38.8083   17.8915 C.ar    1  ****       -0.1040
      5 C5          4.6408  -38.4644   18.5236 C.ar    1  ****       -0.0620
      6 C6          5.8479  -38.5801   17.8152 C.ar    1  ****       -0.1230
      7 C7          4.6783  -37.9981   19.9585 C.3     1  ****        0.0160
      8 C8          3.3368  -37.6932   20.5315 C.2     1  ****       -0.0140
      9 C9          2.9649  -37.0732   21.7102 C.2     1  ****       -0.2180
     10 C10         1.5506  -37.0462   21.7546 C.2     1  ****       -0.2100
     11 C11         1.0831  -37.6522   20.6116 C.2     1  ****       -0.0680
     12 N1          2.1773  -38.0409   19.8806 N.pl3   1  ****       -0.0590
     13 C12         2.1078  -38.7382   18.6046 C.3     1  ****        0.0830
     14 C13         0.7999  -36.4691   22.8437 C.2     1  ****        0.6180
     15 O1         -0.4227  -36.4491   22.8804 O.2     1  ****       -0.5450
     16 C14         1.6316  -35.8890   23.9426 C.ar    1  ****       -0.1220
     17 C15         0.9785  -35.3078   25.0361 C.ar    1  ****       -0.0930
     18 C16         1.7209  -34.7559   26.0814 C.ar    1  ****       -0.1210
     19 C17         3.1145  -34.7818   26.0427 C.ar    1  ****       -0.1210
     20 C18         3.7771  -35.3588   24.9580 C.ar    1  ****       -0.0930
     21 C19         3.0439  -35.9155   23.9031 C.ar    1  ****       -0.1210
     22 C20         3.7930  -36.5244   22.7604 C.2     1  ****        0.6200
     23 O2          5.0159  -36.5477   22.7358 O.2     1  ****       -0.5540
     24 H1          6.7956  -39.1081   15.9556 H       1  ****        0.1380
     25 H2          4.6670  -39.7144   14.8390 H       1  ****        0.1380
     26 H3          2.5323  -39.5372   16.0611 H       1  ****        0.1340
     27 H4          6.7887  -38.3235   18.2953 H       1  ****        0.1410
     28 H5          5.1551  -38.7756   20.5671 H       1  ****        0.0880
     29 H6          5.2970  -37.0938   20.0145 H       1  ****        0.0970
     30 H7          0.0768  -37.8414   20.2611 H       1  ****        0.1870
     31 H8          1.3772  -38.1994   17.9902 H       1  ****        0.0700
     32 H9          1.7425  -39.7493   18.8182 H       1  ****        0.0680
     33 H10        -0.1066  -35.2748   25.0907 H       1  ****        0.1590
     34 H11         1.2107  -34.3050   26.9284 H       1  ****        0.1380
     35 H12         3.6869  -34.3509   26.8588 H       1  ****        0.1380
     36 H13         4.8636  -35.3654   24.9528 H       1  ****        0.1580
@<TRIPOS>BOND
     1     2     1   ar
     2     3     2   ar
     3     4     3   ar
     4     5     4   ar
     5     6     1   ar
     6     6     5   ar
     7     7     5    1
     8     8     7    1
     9     9     8    2
    10    10     9   ar
    11    11    10    2
    12    12     8   ar
    13    12    11    1
    14    13     4    1
    15    13    12    1
    16    14    10    1
    17    15    14    2
    18    16    14    1
    19    17    16   ar
    20    18    17   ar
    21    19    18   ar
    22    20    19   ar
    23    21    16   ar
    24    21    20   ar
    25    22     9    1
    26    22    21    1
    27    23    22    2
    28    24     1    1
    29    25     2    1
    30    26     3    1
    31    27     6    1
    32    28     7    1
    33    29     7    1
    34    30    11    1
    35    31    13    1
    36    32    13    1
    37    33    17    1
    38    34    18    1
    39    35    19    1
    40    36    20    1
@<TRIPOS>SUBSTRUCTURE
     1 ****        1 TEMP              0 ****  ****    0 ROOT


########## Name:		ZINC00001905
##########    Grid Score:          -31.894392
##########      Grid_vdw:          -31.787083
##########       Grid_es:           -0.107309
##########    Int_energy:            0.000000

@<TRIPOS>MOLECULE
ZINC00001905
 20 21 1 0 0
SMALL
USER_CHARGES


@<TRIPOS>ATOM
      1 C1          2.2230  -34.5743   25.4521 C.3     1  ****       -0.0850
      2 C2          1.6363  -34.9088   24.0783 C.3     1  ****       -0.0850
      3 C3          2.0275  -36.2880   23.5568 C.3     1  ****       -0.1060
      4 C4          3.3914  -36.3272   22.9631 C.2     1  ****        0.3910
      5 N1          3.7729  -37.0332   21.9165 N.2     1  ****       -0.3830
      6 N2          5.1042  -36.7539   21.7280 N.2     1  ****       -0.0510
      7 N3          5.5439  -35.8957   22.6360 N.2     1  ****       -0.1980
      8 N4          4.4816  -35.6338   23.4159 N.pl3   1  ****       -0.0740
      9 C5          4.6038  -34.7048   24.5154 C.3     1  ****        0.0520
     10 C6          3.6745  -34.9965   25.6880 C.3     1  ****       -0.0980
     11 H1          1.6030  -35.0414   26.2278 H       1  ****        0.0500
     12 H2          2.1326  -33.4920   25.6065 H       1  ****        0.0480
     13 H3          0.5435  -34.8546   24.1586 H       1  ****        0.0560
     14 H4          1.9266  -34.1341   23.3558 H       1  ****        0.0530
     15 H5          1.9430  -37.0424   24.3462 H       1  ****        0.0720
     16 H6          1.3138  -36.5738   22.7730 H       1  ****        0.0860
     17 H7          5.6409  -34.7667   24.8664 H       1  ****        0.0820
     18 H8          4.4436  -33.6985   24.1136 H       1  ****        0.0650
     19 H9          4.0397  -34.4622   26.5735 H       1  ****        0.0620
     20 H10         3.7102  -36.0639   25.9397 H       1  ****        0.0610
@<TRIPOS>BOND
     1     2     1    1
     2     3     2    1
     3     4     3    1
     4     5     4    2
     5     6     5    1
     6     7     6    2
     7     8     4    1
     8     8     7    1
     9     9     8    1
    10    10     1    1
    11    10     9    1
    12    11     1    1
    13    12     1    1
    14    13     2    1
    15    14     2    1
    16    15     3    1
    17    16     3    1
    18    17     9    1
    19    18     9    1
    20    19    10    1
    21    20    10    1
@<TRIPOS>SUBSTRUCTURE
     1 ****        1 TEMP              0 ****  ****    0 ROOT


########## Name:		1VRT.lig
##########    Grid Score:          -60.892914
##########      Grid_vdw:          -59.110886
##########       Grid_es:           -1.782028
##########    Int_energy:            4.294836

@<TRIPOS>MOLECULE
1VRT.lig
 34 37 1 0 0
SMALL
USER_CHARGES


@<TRIPOS>ATOM
      1 N1          4.2262  -36.9771   22.1376 N.ar    1  LIG        -0.6650
      2 C1          5.1839  -36.2320   22.7336 C.ar    1  LIG         0.3947
      3 H1          6.2137  -36.3422   22.4379 H       1  LIG         0.0281
      4 C2          4.9059  -35.3048   23.7356 C.ar    1  LIG        -0.2334
      5 H2          5.7049  -34.7337   24.1775 H       1  LIG         0.1480
      6 C3          3.6048  -35.1343   24.1457 C.ar    1  LIG        -0.0698
      7 C4          2.5993  -35.8940   23.5423 C.ar    1  LIG        -0.0398
      8 N2          1.2608  -35.7493   23.9952 N.am    1  LIG        -0.4596
      9 H3          1.0741  -35.5866   24.9733 H       1  LIG         0.3311
     10 C5          0.1024  -35.7869   23.3427 C.2     1  LIG         0.7361
     11 C6          0.0699  -36.0326   21.8396 C.ar    1  LIG        -0.2550
     12 C7         -0.9395  -35.4121   21.0982 C.ar    1  LIG        -0.0321
     13 H4         -1.5315  -34.6303   21.5434 H       1  LIG         0.1623
     14 C8         -1.1682  -35.7971   19.8234 C.ar    1  LIG        -0.2723
     15 H5         -1.9427  -35.3194   19.2474 H       1  LIG         0.1522
     16 C9         -0.3899  -36.8092   19.2849 C.ar    1  LIG         0.4373
     17 H6         -0.5627  -37.1421   18.2753 H       1  LIG         0.0280
     18 N3          0.6024  -37.4260   19.9629 N.ar    1  LIG        -0.6893
     19 C10         0.8397  -37.0411   21.2233 C.ar    1  LIG         0.6480
     20 N4          1.9056  -37.6856   21.9141 N.pl3   1  LIG        -0.6924
     21 C11         2.9433  -36.8161   22.5320 C.ar    1  LIG         0.5805
     22 C12         3.2733  -34.1227   25.2291 C.3     1  LIG        -0.0620
     23 H7          2.6031  -33.3992   24.8434 H       1  LIG         0.0570
     24 H8          2.8234  -34.6188   26.0495 H       1  LIG         0.0495
     25 H9          4.1623  -33.6449   25.5499 H       1  LIG         0.0519
     26 O1         -0.9669  -35.5698   23.9299 O.2     1  LIG        -0.6361
     27 C13         2.4213  -38.8767   21.2452 C.3     1  LIG         0.1354
     28 H10         3.2553  -38.6131   20.6483 H       1  LIG         0.0981
     29 C14         2.8846  -39.9840   22.1290 C.3     1  LIG        -0.1181
     30 H11         3.8281  -40.3306   21.7955 H       1  LIG         0.0732
     31 H12         2.9701  -39.6297   23.1233 H       1  LIG         0.0789
     32 C15         1.6068  -40.1101   21.3699 C.3     1  LIG        -0.1196
     33 H13         0.6483  -39.8635   21.7464 H       1  LIG         0.0807
     34 H14         1.5063  -40.5644   20.4185 H       1  LIG         0.0733
@<TRIPOS>BOND
     1     2     1   ar
     2     3     2    1
     3     4     2   ar
     4     5     4    1
     5     6     4   ar
     6     7     6   ar
     7     8     7    1
     8     9     8    1
     9    10     8    1
    10    11    10    1
    11    12    11   ar
    12    13    12    1
    13    14    12   ar
    14    15    14    1
    15    16    14   ar
    16    17    16    1
    17    18    16   ar
    18    19    11   ar
    19    19    18   ar
    20    20    19    1
    21    21     1   ar
    22    21     7   ar
    23    21    20    1
    24    22     6    1
    25    23    22    1
    26    24    22    1
    27    25    22    1
    28    26    10    2
    29    27    20    1
    30    28    27    1
    31    29    27    1
    32    30    29    1
    33    31    29    1
    34    32    27    1
    35    32    29    1
    36    33    32    1
    37    34    32    1
@<TRIPOS>SUBSTRUCTURE
     1 LIG         1 TEMP              0 ****  ****    0 ROOT

